<routes>
            <vTypeDistribution id="standard_car">
                <vType id="type1" guiShape="bus" vClass="bus"  probability="0.05"/>
                <vType id="type2" guiShape="truck" vClass="truck"  probability="0.05"/>
                <vType accel="2.6" decel="4.5" id="standard_car_origin" guiShape="passenger" length="5.0" minGap="2.5" maxSpeed="31" sigma="0.5" probability="0.9"/>
            </vTypeDistribution>
            

            <route id="W_N" edges="W2TL TL2N"/>s
            <route id="W_E" edges="W2TL TL2E"/>
            <route id="W_S" edges="W2TL TL2S"/>
            <route id="N_W" edges="N2TL TL2W"/>
            <route id="N_E" edges="N2TL TL2E"/>
            <route id="N_S" edges="N2TL TL2S"/>
            <route id="E_W" edges="E2TL TL2W"/>
            <route id="E_N" edges="E2TL TL2N"/>
            <route id="E_S" edges="E2TL TL2S"/>
            <route id="S_W" edges="S2TL TL2W"/>
            <route id="S_N" edges="S2TL TL2N"/>
            <route id="S_E" edges="S2TL TL2E"/>
    <vehicle id="N_S_0" type="standard_car" route="N_S" depart="2.0" departLane="random" departSpeed="10" />
    <vehicle id="E_W_1" type="standard_car" route="E_W" depart="65.0" departLane="random" departSpeed="10" />
    <vehicle id="S_N_2" type="standard_car" route="S_N" depart="72.0" departLane="random" departSpeed="10" />
    <vehicle id="N_S_3" type="standard_car" route="N_S" depart="73.0" departLane="random" departSpeed="10" />
    <vehicle id="W_S_4" type="standard_car" route="W_S" depart="80.0" departLane="random" departSpeed="10" />
    <vehicle id="E_W_5" type="standard_car" route="E_W" depart="92.0" departLane="random" departSpeed="10" />
    <vehicle id="S_N_6" type="standard_car" route="S_N" depart="121.0" departLane="random" departSpeed="10" />
    <vehicle id="W_S_7" type="standard_car" route="W_S" depart="131.0" departLane="random" departSpeed="10" />
    <vehicle id="N_S_8" type="standard_car" route="N_S" depart="137.0" departLane="random" departSpeed="10" />
    <vehicle id="E_W_9" type="standard_car" route="E_W" depart="138.0" departLane="random" departSpeed="10" />
    <vehicle id="E_W_10" type="standard_car" route="E_W" depart="165.0" departLane="random" departSpeed="10" />
    <vehicle id="N_E_11" type="standard_car" route="N_E" depart="167.0" departLane="random" departSpeed="10" />
    <vehicle id="N_S_12" type="standard_car" route="N_S" depart="179.0" departLane="random" departSpeed="10" />
    <vehicle id="N_S_13" type="standard_car" route="N_S" depart="180.0" departLane="random" departSpeed="10" />
    <vehicle id="E_W_14" type="standard_car" route="E_W" depart="182.0" departLane="random" departSpeed="10" />
    <vehicle id="S_N_15" type="standard_car" route="S_N" depart="188.0" departLane="random" departSpeed="10" />
    <vehicle id="S_N_16" type="standard_car" route="S_N" depart="190.0" departLane="random" departSpeed="10" />
    <vehicle id="N_S_17" type="standard_car" route="N_S" depart="190.0" departLane="random" departSpeed="10" />
    <vehicle id="S_N_18" type="standard_car" route="S_N" depart="197.0" departLane="random" departSpeed="10" />
    <vehicle id="W_E_19" type="standard_car" route="W_E" depart="197.0" departLane="random" departSpeed="10" />
    <vehicle id="N_S_20" type="standard_car" route="N_S" depart="200.0" departLane="random" departSpeed="10" />
    <vehicle id="N_S_21" type="standard_car" route="N_S" depart="201.0" departLane="random" departSpeed="10" />
    <vehicle id="N_S_22" type="standard_car" route="N_S" depart="202.0" departLane="random" departSpeed="10" />
    <vehicle id="E_W_23" type="standard_car" route="E_W" depart="212.0" departLane="random" departSpeed="10" />
    <vehicle id="E_W_24" type="standard_car" route="E_W" depart="219.0" departLane="random" departSpeed="10" />
    <vehicle id="E_W_25" type="standard_car" route="E_W" depart="221.0" departLane="random" departSpeed="10" />
    <vehicle id="S_N_26" type="standard_car" route="S_N" depart="226.0" departLane="random" departSpeed="10" />
    <vehicle id="N_S_27" type="standard_car" route="N_S" depart="237.0" departLane="random" departSpeed="10" />
    <vehicle id="S_W_28" type="standard_car" route="S_W" depart="237.0" departLane="random" departSpeed="10" />
    <vehicle id="S_N_29" type="standard_car" route="S_N" depart="245.0" departLane="random" departSpeed="10" />
    <vehicle id="N_S_30" type="standard_car" route="N_S" depart="251.0" departLane="random" departSpeed="10" />
    <vehicle id="S_N_31" type="standard_car" route="S_N" depart="266.0" departLane="random" departSpeed="10" />
    <vehicle id="W_S_32" type="standard_car" route="W_S" depart="267.0" departLane="random" departSpeed="10" />
    <vehicle id="S_N_33" type="standard_car" route="S_N" depart="275.0" departLane="random" departSpeed="10" />
    <vehicle id="W_E_34" type="standard_car" route="W_E" depart="277.0" departLane="random" departSpeed="10" />
    <vehicle id="S_N_35" type="standard_car" route="S_N" depart="282.0" departLane="random" departSpeed="10" />
    <vehicle id="E_W_36" type="standard_car" route="E_W" depart="283.0" departLane="random" departSpeed="10" />
    <vehicle id="E_W_37" type="standard_car" route="E_W" depart="285.0" departLane="random" departSpeed="10" />
    <vehicle id="S_N_38" type="standard_car" route="S_N" depart="295.0" departLane="random" departSpeed="10" />
    <vehicle id="W_E_39" type="standard_car" route="W_E" depart="297.0" departLane="random" departSpeed="10" />
    <vehicle id="S_N_40" type="standard_car" route="S_N" depart="298.0" departLane="random" departSpeed="10" />
    <vehicle id="W_E_41" type="standard_car" route="W_E" depart="303.0" departLane="random" departSpeed="10" />
    <vehicle id="W_S_42" type="standard_car" route="W_S" depart="305.0" departLane="random" departSpeed="10" />
    <vehicle id="N_E_43" type="standard_car" route="N_E" depart="312.0" departLane="random" departSpeed="10" />
    <vehicle id="E_N_44" type="standard_car" route="E_N" depart="316.0" departLane="random" departSpeed="10" />
    <vehicle id="S_N_45" type="standard_car" route="S_N" depart="317.0" departLane="random" departSpeed="10" />
    <vehicle id="S_N_46" type="standard_car" route="S_N" depart="318.0" departLane="random" departSpeed="10" />
    <vehicle id="W_E_47" type="standard_car" route="W_E" depart="323.0" departLane="random" departSpeed="10" />
    <vehicle id="W_E_48" type="standard_car" route="W_E" depart="326.0" departLane="random" departSpeed="10" />
    <vehicle id="S_N_49" type="standard_car" route="S_N" depart="328.0" departLane="random" departSpeed="10" />
    <vehicle id="S_W_50" type="standard_car" route="S_W" depart="329.0" departLane="random" departSpeed="10" />
    <vehicle id="E_W_51" type="standard_car" route="E_W" depart="340.0" departLane="random" departSpeed="10" />
    <vehicle id="W_E_52" type="standard_car" route="W_E" depart="340.0" departLane="random" departSpeed="10" />
    <vehicle id="E_S_53" type="standard_car" route="E_S" depart="340.0" departLane="random" departSpeed="10" />
    <vehicle id="W_S_54" type="standard_car" route="W_S" depart="340.0" departLane="random" departSpeed="10" />
    <vehicle id="N_W_55" type="standard_car" route="N_W" depart="342.0" departLane="random" departSpeed="10" />
    <vehicle id="N_S_56" type="standard_car" route="N_S" depart="344.0" departLane="random" departSpeed="10" />
    <vehicle id="W_N_57" type="standard_car" route="W_N" depart="346.0" departLane="random" departSpeed="10" />
    <vehicle id="E_S_58" type="standard_car" route="E_S" depart="346.0" departLane="random" departSpeed="10" />
    <vehicle id="N_W_59" type="standard_car" route="N_W" depart="350.0" departLane="random" departSpeed="10" />
    <vehicle id="N_E_60" type="standard_car" route="N_E" depart="351.0" departLane="random" departSpeed="10" />
    <vehicle id="W_S_61" type="standard_car" route="W_S" depart="359.0" departLane="random" departSpeed="10" />
    <vehicle id="S_N_62" type="standard_car" route="S_N" depart="361.0" departLane="random" departSpeed="10" />
    <vehicle id="W_S_63" type="standard_car" route="W_S" depart="363.0" departLane="random" departSpeed="10" />
    <vehicle id="N_S_64" type="standard_car" route="N_S" depart="365.0" departLane="random" departSpeed="10" />
    <vehicle id="S_N_65" type="standard_car" route="S_N" depart="370.0" departLane="random" departSpeed="10" />
    <vehicle id="S_W_66" type="standard_car" route="S_W" depart="376.0" departLane="random" departSpeed="10" />
    <vehicle id="S_N_67" type="standard_car" route="S_N" depart="377.0" departLane="random" departSpeed="10" />
    <vehicle id="E_W_68" type="standard_car" route="E_W" depart="381.0" departLane="random" departSpeed="10" />
    <vehicle id="N_W_69" type="standard_car" route="N_W" depart="389.0" departLane="random" departSpeed="10" />
    <vehicle id="N_S_70" type="standard_car" route="N_S" depart="391.0" departLane="random" departSpeed="10" />
    <vehicle id="S_N_71" type="standard_car" route="S_N" depart="397.0" departLane="random" departSpeed="10" />
    <vehicle id="W_E_72" type="standard_car" route="W_E" depart="407.0" departLane="random" departSpeed="10" />
    <vehicle id="S_N_73" type="standard_car" route="S_N" depart="407.0" departLane="random" departSpeed="10" />
    <vehicle id="S_N_74" type="standard_car" route="S_N" depart="413.0" departLane="random" departSpeed="10" />
    <vehicle id="N_E_75" type="standard_car" route="N_E" depart="419.0" departLane="random" departSpeed="10" />
    <vehicle id="S_N_76" type="standard_car" route="S_N" depart="425.0" departLane="random" departSpeed="10" />
    <vehicle id="S_N_77" type="standard_car" route="S_N" depart="425.0" departLane="random" departSpeed="10" />
    <vehicle id="N_S_78" type="standard_car" route="N_S" depart="426.0" departLane="random" departSpeed="10" />
    <vehicle id="N_S_79" type="standard_car" route="N_S" depart="432.0" departLane="random" departSpeed="10" />
    <vehicle id="E_W_80" type="standard_car" route="E_W" depart="435.0" departLane="random" departSpeed="10" />
    <vehicle id="N_S_81" type="standard_car" route="N_S" depart="437.0" departLane="random" departSpeed="10" />
    <vehicle id="S_N_82" type="standard_car" route="S_N" depart="438.0" departLane="random" departSpeed="10" />
    <vehicle id="N_S_83" type="standard_car" route="N_S" depart="440.0" departLane="random" departSpeed="10" />
    <vehicle id="S_N_84" type="standard_car" route="S_N" depart="449.0" departLane="random" departSpeed="10" />
    <vehicle id="S_N_85" type="standard_car" route="S_N" depart="453.0" departLane="random" departSpeed="10" />
    <vehicle id="W_N_86" type="standard_car" route="W_N" depart="455.0" departLane="random" departSpeed="10" />
    <vehicle id="W_E_87" type="standard_car" route="W_E" depart="455.0" departLane="random" departSpeed="10" />
    <vehicle id="S_N_88" type="standard_car" route="S_N" depart="457.0" departLane="random" departSpeed="10" />
    <vehicle id="N_S_89" type="standard_car" route="N_S" depart="459.0" departLane="random" departSpeed="10" />
    <vehicle id="S_N_90" type="standard_car" route="S_N" depart="463.0" departLane="random" departSpeed="10" />
    <vehicle id="W_E_91" type="standard_car" route="W_E" depart="464.0" departLane="random" departSpeed="10" />
    <vehicle id="N_W_92" type="standard_car" route="N_W" depart="465.0" departLane="random" departSpeed="10" />
    <vehicle id="N_S_93" type="standard_car" route="N_S" depart="467.0" departLane="random" departSpeed="10" />
    <vehicle id="N_E_94" type="standard_car" route="N_E" depart="468.0" departLane="random" departSpeed="10" />
    <vehicle id="S_N_95" type="standard_car" route="S_N" depart="469.0" departLane="random" departSpeed="10" />
    <vehicle id="E_W_96" type="standard_car" route="E_W" depart="470.0" departLane="random" departSpeed="10" />
    <vehicle id="S_E_97" type="standard_car" route="S_E" depart="471.0" departLane="random" departSpeed="10" />
    <vehicle id="S_N_98" type="standard_car" route="S_N" depart="473.0" departLane="random" departSpeed="10" />
    <vehicle id="S_W_99" type="standard_car" route="S_W" depart="475.0" departLane="random" departSpeed="10" />
    <vehicle id="W_E_100" type="standard_car" route="W_E" depart="478.0" departLane="random" departSpeed="10" />
    <vehicle id="E_W_101" type="standard_car" route="E_W" depart="480.0" departLane="random" departSpeed="10" />
    <vehicle id="S_E_102" type="standard_car" route="S_E" depart="481.0" departLane="random" departSpeed="10" />
    <vehicle id="N_E_103" type="standard_car" route="N_E" depart="482.0" departLane="random" departSpeed="10" />
    <vehicle id="E_W_104" type="standard_car" route="E_W" depart="485.0" departLane="random" departSpeed="10" />
    <vehicle id="E_W_105" type="standard_car" route="E_W" depart="487.0" departLane="random" departSpeed="10" />
    <vehicle id="E_N_106" type="standard_car" route="E_N" depart="487.0" departLane="random" departSpeed="10" />
    <vehicle id="W_E_107" type="standard_car" route="W_E" depart="488.0" departLane="random" departSpeed="10" />
    <vehicle id="E_W_108" type="standard_car" route="E_W" depart="489.0" departLane="random" departSpeed="10" />
    <vehicle id="N_W_109" type="standard_car" route="N_W" depart="496.0" departLane="random" departSpeed="10" />
    <vehicle id="S_N_110" type="standard_car" route="S_N" depart="496.0" departLane="random" departSpeed="10" />
    <vehicle id="N_S_111" type="standard_car" route="N_S" depart="508.0" departLane="random" departSpeed="10" />
    <vehicle id="S_N_112" type="standard_car" route="S_N" depart="512.0" departLane="random" departSpeed="10" />
    <vehicle id="W_E_113" type="standard_car" route="W_E" depart="514.0" departLane="random" departSpeed="10" />
    <vehicle id="E_W_114" type="standard_car" route="E_W" depart="514.0" departLane="random" departSpeed="10" />
    <vehicle id="N_E_115" type="standard_car" route="N_E" depart="514.0" departLane="random" departSpeed="10" />
    <vehicle id="S_N_116" type="standard_car" route="S_N" depart="515.0" departLane="random" departSpeed="10" />
    <vehicle id="N_S_117" type="standard_car" route="N_S" depart="515.0" departLane="random" departSpeed="10" />
    <vehicle id="W_E_118" type="standard_car" route="W_E" depart="518.0" departLane="random" departSpeed="10" />
    <vehicle id="N_S_119" type="standard_car" route="N_S" depart="522.0" departLane="random" departSpeed="10" />
    <vehicle id="S_N_120" type="standard_car" route="S_N" depart="523.0" departLane="random" departSpeed="10" />
    <vehicle id="N_S_121" type="standard_car" route="N_S" depart="531.0" departLane="random" departSpeed="10" />
    <vehicle id="E_W_122" type="standard_car" route="E_W" depart="531.0" departLane="random" departSpeed="10" />
    <vehicle id="N_S_123" type="standard_car" route="N_S" depart="532.0" departLane="random" departSpeed="10" />
    <vehicle id="W_S_124" type="standard_car" route="W_S" depart="532.0" departLane="random" departSpeed="10" />
    <vehicle id="E_W_125" type="standard_car" route="E_W" depart="534.0" departLane="random" departSpeed="10" />
    <vehicle id="N_S_126" type="standard_car" route="N_S" depart="534.0" departLane="random" departSpeed="10" />
    <vehicle id="W_E_127" type="standard_car" route="W_E" depart="535.0" departLane="random" departSpeed="10" />
    <vehicle id="S_N_128" type="standard_car" route="S_N" depart="535.0" departLane="random" departSpeed="10" />
    <vehicle id="N_S_129" type="standard_car" route="N_S" depart="535.0" departLane="random" departSpeed="10" />
    <vehicle id="N_S_130" type="standard_car" route="N_S" depart="539.0" departLane="random" departSpeed="10" />
    <vehicle id="W_S_131" type="standard_car" route="W_S" depart="539.0" departLane="random" departSpeed="10" />
    <vehicle id="S_N_132" type="standard_car" route="S_N" depart="539.0" departLane="random" departSpeed="10" />
    <vehicle id="S_N_133" type="standard_car" route="S_N" depart="542.0" departLane="random" departSpeed="10" />
    <vehicle id="E_W_134" type="standard_car" route="E_W" depart="547.0" departLane="random" departSpeed="10" />
    <vehicle id="E_S_135" type="standard_car" route="E_S" depart="547.0" departLane="random" departSpeed="10" />
    <vehicle id="E_N_136" type="standard_car" route="E_N" depart="548.0" departLane="random" departSpeed="10" />
    <vehicle id="S_N_137" type="standard_car" route="S_N" depart="549.0" departLane="random" departSpeed="10" />
    <vehicle id="E_S_138" type="standard_car" route="E_S" depart="551.0" departLane="random" departSpeed="10" />
    <vehicle id="E_W_139" type="standard_car" route="E_W" depart="551.0" departLane="random" departSpeed="10" />
    <vehicle id="N_S_140" type="standard_car" route="N_S" depart="552.0" departLane="random" departSpeed="10" />
    <vehicle id="E_N_141" type="standard_car" route="E_N" depart="555.0" departLane="random" departSpeed="10" />
    <vehicle id="W_E_142" type="standard_car" route="W_E" depart="557.0" departLane="random" departSpeed="10" />
    <vehicle id="E_W_143" type="standard_car" route="E_W" depart="558.0" departLane="random" departSpeed="10" />
    <vehicle id="E_W_144" type="standard_car" route="E_W" depart="561.0" departLane="random" departSpeed="10" />
    <vehicle id="E_W_145" type="standard_car" route="E_W" depart="568.0" departLane="random" departSpeed="10" />
    <vehicle id="E_W_146" type="standard_car" route="E_W" depart="569.0" departLane="random" departSpeed="10" />
    <vehicle id="N_S_147" type="standard_car" route="N_S" depart="576.0" departLane="random" departSpeed="10" />
    <vehicle id="E_S_148" type="standard_car" route="E_S" depart="586.0" departLane="random" departSpeed="10" />
    <vehicle id="S_E_149" type="standard_car" route="S_E" depart="590.0" departLane="random" departSpeed="10" />
    <vehicle id="N_S_150" type="standard_car" route="N_S" depart="592.0" departLane="random" departSpeed="10" />
    <vehicle id="N_S_151" type="standard_car" route="N_S" depart="594.0" departLane="random" departSpeed="10" />
    <vehicle id="S_N_152" type="standard_car" route="S_N" depart="594.0" departLane="random" departSpeed="10" />
    <vehicle id="S_E_153" type="standard_car" route="S_E" depart="596.0" departLane="random" departSpeed="10" />
    <vehicle id="S_N_154" type="standard_car" route="S_N" depart="601.0" departLane="random" departSpeed="10" />
    <vehicle id="N_S_155" type="standard_car" route="N_S" depart="603.0" departLane="random" departSpeed="10" />
    <vehicle id="W_E_156" type="standard_car" route="W_E" depart="605.0" departLane="random" departSpeed="10" />
    <vehicle id="S_N_157" type="standard_car" route="S_N" depart="609.0" departLane="random" departSpeed="10" />
    <vehicle id="N_E_158" type="standard_car" route="N_E" depart="610.0" departLane="random" departSpeed="10" />
    <vehicle id="S_N_159" type="standard_car" route="S_N" depart="611.0" departLane="random" departSpeed="10" />
    <vehicle id="N_S_160" type="standard_car" route="N_S" depart="612.0" departLane="random" departSpeed="10" />
    <vehicle id="E_N_161" type="standard_car" route="E_N" depart="613.0" departLane="random" departSpeed="10" />
    <vehicle id="W_E_162" type="standard_car" route="W_E" depart="614.0" departLane="random" departSpeed="10" />
    <vehicle id="S_N_163" type="standard_car" route="S_N" depart="615.0" departLane="random" departSpeed="10" />
    <vehicle id="W_E_164" type="standard_car" route="W_E" depart="620.0" departLane="random" departSpeed="10" />
    <vehicle id="E_W_165" type="standard_car" route="E_W" depart="623.0" departLane="random" departSpeed="10" />
    <vehicle id="E_W_166" type="standard_car" route="E_W" depart="625.0" departLane="random" departSpeed="10" />
    <vehicle id="N_S_167" type="standard_car" route="N_S" depart="633.0" departLane="random" departSpeed="10" />
    <vehicle id="W_E_168" type="standard_car" route="W_E" depart="634.0" departLane="random" departSpeed="10" />
    <vehicle id="W_N_169" type="standard_car" route="W_N" depart="636.0" departLane="random" departSpeed="10" />
    <vehicle id="W_E_170" type="standard_car" route="W_E" depart="638.0" departLane="random" departSpeed="10" />
    <vehicle id="S_N_171" type="standard_car" route="S_N" depart="638.0" departLane="random" departSpeed="10" />
    <vehicle id="N_S_172" type="standard_car" route="N_S" depart="643.0" departLane="random" departSpeed="10" />
    <vehicle id="N_S_173" type="standard_car" route="N_S" depart="643.0" departLane="random" departSpeed="10" />
    <vehicle id="N_S_174" type="standard_car" route="N_S" depart="643.0" departLane="random" departSpeed="10" />
    <vehicle id="E_N_175" type="standard_car" route="E_N" depart="647.0" departLane="random" departSpeed="10" />
    <vehicle id="N_S_176" type="standard_car" route="N_S" depart="649.0" departLane="random" departSpeed="10" />
    <vehicle id="E_W_177" type="standard_car" route="E_W" depart="649.0" departLane="random" departSpeed="10" />
    <vehicle id="E_W_178" type="standard_car" route="E_W" depart="653.0" departLane="random" departSpeed="10" />
    <vehicle id="N_W_179" type="standard_car" route="N_W" depart="654.0" departLane="random" departSpeed="10" />
    <vehicle id="E_N_180" type="standard_car" route="E_N" depart="655.0" departLane="random" departSpeed="10" />
    <vehicle id="E_W_181" type="standard_car" route="E_W" depart="661.0" departLane="random" departSpeed="10" />
    <vehicle id="N_S_182" type="standard_car" route="N_S" depart="663.0" departLane="random" departSpeed="10" />
    <vehicle id="N_S_183" type="standard_car" route="N_S" depart="663.0" departLane="random" departSpeed="10" />
    <vehicle id="W_E_184" type="standard_car" route="W_E" depart="666.0" departLane="random" departSpeed="10" />
    <vehicle id="W_E_185" type="standard_car" route="W_E" depart="667.0" departLane="random" departSpeed="10" />
    <vehicle id="E_W_186" type="standard_car" route="E_W" depart="674.0" departLane="random" departSpeed="10" />
    <vehicle id="W_E_187" type="standard_car" route="W_E" depart="674.0" departLane="random" departSpeed="10" />
    <vehicle id="W_E_188" type="standard_car" route="W_E" depart="674.0" departLane="random" departSpeed="10" />
    <vehicle id="S_N_189" type="standard_car" route="S_N" depart="675.0" departLane="random" departSpeed="10" />
    <vehicle id="S_N_190" type="standard_car" route="S_N" depart="676.0" departLane="random" departSpeed="10" />
    <vehicle id="W_E_191" type="standard_car" route="W_E" depart="676.0" departLane="random" departSpeed="10" />
    <vehicle id="S_N_192" type="standard_car" route="S_N" depart="679.0" departLane="random" departSpeed="10" />
    <vehicle id="W_E_193" type="standard_car" route="W_E" depart="680.0" departLane="random" departSpeed="10" />
    <vehicle id="W_E_194" type="standard_car" route="W_E" depart="682.0" departLane="random" departSpeed="10" />
    <vehicle id="N_S_195" type="standard_car" route="N_S" depart="682.0" departLane="random" departSpeed="10" />
    <vehicle id="E_W_196" type="standard_car" route="E_W" depart="685.0" departLane="random" departSpeed="10" />
    <vehicle id="W_N_197" type="standard_car" route="W_N" depart="685.0" departLane="random" departSpeed="10" />
    <vehicle id="N_S_198" type="standard_car" route="N_S" depart="689.0" departLane="random" departSpeed="10" />
    <vehicle id="N_S_199" type="standard_car" route="N_S" depart="690.0" departLane="random" departSpeed="10" />
    <vehicle id="W_E_200" type="standard_car" route="W_E" depart="692.0" departLane="random" departSpeed="10" />
    <vehicle id="W_E_201" type="standard_car" route="W_E" depart="694.0" departLane="random" departSpeed="10" />
    <vehicle id="W_S_202" type="standard_car" route="W_S" depart="696.0" departLane="random" departSpeed="10" />
    <vehicle id="N_E_203" type="standard_car" route="N_E" depart="697.0" departLane="random" departSpeed="10" />
    <vehicle id="W_E_204" type="standard_car" route="W_E" depart="700.0" departLane="random" departSpeed="10" />
    <vehicle id="S_E_205" type="standard_car" route="S_E" depart="701.0" departLane="random" departSpeed="10" />
    <vehicle id="E_W_206" type="standard_car" route="E_W" depart="702.0" departLane="random" departSpeed="10" />
    <vehicle id="E_W_207" type="standard_car" route="E_W" depart="705.0" departLane="random" departSpeed="10" />
    <vehicle id="E_W_208" type="standard_car" route="E_W" depart="706.0" departLane="random" departSpeed="10" />
    <vehicle id="N_S_209" type="standard_car" route="N_S" depart="708.0" departLane="random" departSpeed="10" />
    <vehicle id="N_W_210" type="standard_car" route="N_W" depart="712.0" departLane="random" departSpeed="10" />
    <vehicle id="N_E_211" type="standard_car" route="N_E" depart="712.0" departLane="random" departSpeed="10" />
    <vehicle id="S_N_212" type="standard_car" route="S_N" depart="713.0" departLane="random" departSpeed="10" />
    <vehicle id="N_S_213" type="standard_car" route="N_S" depart="713.0" departLane="random" departSpeed="10" />
    <vehicle id="W_E_214" type="standard_car" route="W_E" depart="714.0" departLane="random" departSpeed="10" />
    <vehicle id="S_E_215" type="standard_car" route="S_E" depart="716.0" departLane="random" departSpeed="10" />
    <vehicle id="W_S_216" type="standard_car" route="W_S" depart="717.0" departLane="random" departSpeed="10" />
    <vehicle id="E_W_217" type="standard_car" route="E_W" depart="720.0" departLane="random" departSpeed="10" />
    <vehicle id="S_N_218" type="standard_car" route="S_N" depart="722.0" departLane="random" departSpeed="10" />
    <vehicle id="S_N_219" type="standard_car" route="S_N" depart="723.0" departLane="random" departSpeed="10" />
    <vehicle id="W_E_220" type="standard_car" route="W_E" depart="723.0" departLane="random" departSpeed="10" />
    <vehicle id="W_E_221" type="standard_car" route="W_E" depart="726.0" departLane="random" departSpeed="10" />
    <vehicle id="N_S_222" type="standard_car" route="N_S" depart="728.0" departLane="random" departSpeed="10" />
    <vehicle id="N_E_223" type="standard_car" route="N_E" depart="728.0" departLane="random" departSpeed="10" />
    <vehicle id="E_W_224" type="standard_car" route="E_W" depart="728.0" departLane="random" departSpeed="10" />
    <vehicle id="N_W_225" type="standard_car" route="N_W" depart="731.0" departLane="random" departSpeed="10" />
    <vehicle id="W_E_226" type="standard_car" route="W_E" depart="732.0" departLane="random" departSpeed="10" />
    <vehicle id="S_N_227" type="standard_car" route="S_N" depart="733.0" departLane="random" departSpeed="10" />
    <vehicle id="S_N_228" type="standard_car" route="S_N" depart="733.0" departLane="random" departSpeed="10" />
    <vehicle id="W_S_229" type="standard_car" route="W_S" depart="733.0" departLane="random" departSpeed="10" />
    <vehicle id="W_E_230" type="standard_car" route="W_E" depart="737.0" departLane="random" departSpeed="10" />
    <vehicle id="N_W_231" type="standard_car" route="N_W" depart="738.0" departLane="random" departSpeed="10" />
    <vehicle id="S_N_232" type="standard_car" route="S_N" depart="739.0" departLane="random" departSpeed="10" />
    <vehicle id="W_S_233" type="standard_car" route="W_S" depart="739.0" departLane="random" departSpeed="10" />
    <vehicle id="N_S_234" type="standard_car" route="N_S" depart="741.0" departLane="random" departSpeed="10" />
    <vehicle id="S_N_235" type="standard_car" route="S_N" depart="742.0" departLane="random" departSpeed="10" />
    <vehicle id="N_S_236" type="standard_car" route="N_S" depart="745.0" departLane="random" departSpeed="10" />
    <vehicle id="N_W_237" type="standard_car" route="N_W" depart="752.0" departLane="random" departSpeed="10" />
    <vehicle id="W_E_238" type="standard_car" route="W_E" depart="752.0" departLane="random" departSpeed="10" />
    <vehicle id="N_S_239" type="standard_car" route="N_S" depart="752.0" departLane="random" departSpeed="10" />
    <vehicle id="N_W_240" type="standard_car" route="N_W" depart="752.0" departLane="random" departSpeed="10" />
    <vehicle id="S_N_241" type="standard_car" route="S_N" depart="752.0" departLane="random" departSpeed="10" />
    <vehicle id="E_N_242" type="standard_car" route="E_N" depart="754.0" departLane="random" departSpeed="10" />
    <vehicle id="W_E_243" type="standard_car" route="W_E" depart="756.0" departLane="random" departSpeed="10" />
    <vehicle id="W_E_244" type="standard_car" route="W_E" depart="763.0" departLane="random" departSpeed="10" />
    <vehicle id="S_N_245" type="standard_car" route="S_N" depart="765.0" departLane="random" departSpeed="10" />
    <vehicle id="N_S_246" type="standard_car" route="N_S" depart="766.0" departLane="random" departSpeed="10" />
    <vehicle id="N_W_247" type="standard_car" route="N_W" depart="766.0" departLane="random" departSpeed="10" />
    <vehicle id="N_S_248" type="standard_car" route="N_S" depart="766.0" departLane="random" departSpeed="10" />
    <vehicle id="N_S_249" type="standard_car" route="N_S" depart="767.0" departLane="random" departSpeed="10" />
    <vehicle id="S_N_250" type="standard_car" route="S_N" depart="769.0" departLane="random" departSpeed="10" />
    <vehicle id="E_W_251" type="standard_car" route="E_W" depart="771.0" departLane="random" departSpeed="10" />
    <vehicle id="E_W_252" type="standard_car" route="E_W" depart="773.0" departLane="random" departSpeed="10" />
    <vehicle id="W_N_253" type="standard_car" route="W_N" depart="774.0" departLane="random" departSpeed="10" />
    <vehicle id="S_N_254" type="standard_car" route="S_N" depart="776.0" departLane="random" departSpeed="10" />
    <vehicle id="W_N_255" type="standard_car" route="W_N" depart="781.0" departLane="random" departSpeed="10" />
    <vehicle id="E_W_256" type="standard_car" route="E_W" depart="781.0" departLane="random" departSpeed="10" />