<routes>
            <vTypeDistribution id="standard_car">
                <vType id="type1" guiShape="bus" vClass="bus"  probability="0.05"/>
                <vType id="type2" guiShape="truck" vClass="truck"  probability="0.05"/>
                <vType id="type3" guiShape="moped" vClass="moped"  probability="0.3"/>
                <vType accel="2.6" decel="4.5" id="standard_car_origin" guiShape="passenger" length="5.0" minGap="2.5" maxSpeed="31" sigma="0.5" probability="0.6"/>
            </vTypeDistribution>
            

            <route id="W_N" edges="W2TL TL2N"/>s
            <route id="W_E" edges="W2TL TL2E"/>
            <route id="W_S" edges="W2TL TL2S"/>
            <route id="N_W" edges="N2TL TL2W"/>
            <route id="N_E" edges="N2TL TL2E"/>
            <route id="N_S" edges="N2TL TL2S"/>
            <route id="E_W" edges="E2TL TL2W"/>
            <route id="E_N" edges="E2TL TL2N"/>
            <route id="E_S" edges="E2TL TL2S"/>
            <route id="S_W" edges="S2TL TL2W"/>
            <route id="S_N" edges="S2TL TL2N"/>
            <route id="S_E" edges="S2TL TL2E"/>
    <vehicle id="N_S_0" type="standard_car" route="N_S" depart="61.0" departLane="best" departSpeed="10" />
    <vehicle id="E_W_1" type="standard_car" route="E_W" depart="72.0" departLane="best" departSpeed="10" />
    <vehicle id="S_N_2" type="standard_car" route="S_N" depart="80.0" departLane="best" departSpeed="10" />
    <vehicle id="N_W_3" type="standard_car" route="N_W" depart="96.0" departLane="best" departSpeed="10" />
    <vehicle id="S_N_4" type="standard_car" route="S_N" depart="98.0" departLane="best" departSpeed="10" />
    <vehicle id="N_E_5" type="standard_car" route="N_E" depart="103.0" departLane="best" departSpeed="10" />
    <vehicle id="N_S_6" type="standard_car" route="N_S" depart="110.0" departLane="best" departSpeed="10" />
    <vehicle id="S_N_7" type="standard_car" route="S_N" depart="120.0" departLane="best" departSpeed="10" />
    <vehicle id="E_S_8" type="standard_car" route="E_S" depart="130.0" departLane="best" departSpeed="10" />
    <vehicle id="E_W_9" type="standard_car" route="E_W" depart="149.0" departLane="best" departSpeed="10" />
    <vehicle id="N_S_10" type="standard_car" route="N_S" depart="154.0" departLane="best" departSpeed="10" />
    <vehicle id="S_N_11" type="standard_car" route="S_N" depart="161.0" departLane="best" departSpeed="10" />
    <vehicle id="E_W_12" type="standard_car" route="E_W" depart="179.0" departLane="best" departSpeed="10" />
    <vehicle id="N_W_13" type="standard_car" route="N_W" depart="183.0" departLane="best" departSpeed="10" />
    <vehicle id="W_E_14" type="standard_car" route="W_E" depart="189.0" departLane="best" departSpeed="10" />
    <vehicle id="W_E_15" type="standard_car" route="W_E" depart="191.0" departLane="best" departSpeed="10" />
    <vehicle id="W_E_16" type="standard_car" route="W_E" depart="192.0" departLane="best" departSpeed="10" />
    <vehicle id="E_W_17" type="standard_car" route="E_W" depart="195.0" departLane="best" departSpeed="10" />
    <vehicle id="E_W_18" type="standard_car" route="E_W" depart="195.0" departLane="best" departSpeed="10" />
    <vehicle id="E_W_19" type="standard_car" route="E_W" depart="196.0" departLane="best" departSpeed="10" />
    <vehicle id="N_S_20" type="standard_car" route="N_S" depart="196.0" departLane="best" departSpeed="10" />
    <vehicle id="W_E_21" type="standard_car" route="W_E" depart="201.0" departLane="best" departSpeed="10" />
    <vehicle id="E_W_22" type="standard_car" route="E_W" depart="201.0" departLane="best" departSpeed="10" />
    <vehicle id="E_W_23" type="standard_car" route="E_W" depart="229.0" departLane="best" departSpeed="10" />
    <vehicle id="W_E_24" type="standard_car" route="W_E" depart="229.0" departLane="best" departSpeed="10" />
    <vehicle id="W_E_25" type="standard_car" route="W_E" depart="230.0" departLane="best" departSpeed="10" />
    <vehicle id="W_E_26" type="standard_car" route="W_E" depart="235.0" departLane="best" departSpeed="10" />
    <vehicle id="W_N_27" type="standard_car" route="W_N" depart="237.0" departLane="best" departSpeed="10" />
    <vehicle id="S_N_28" type="standard_car" route="S_N" depart="247.0" departLane="best" departSpeed="10" />
    <vehicle id="W_N_29" type="standard_car" route="W_N" depart="250.0" departLane="best" departSpeed="10" />
    <vehicle id="S_N_30" type="standard_car" route="S_N" depart="252.0" departLane="best" departSpeed="10" />
    <vehicle id="W_E_31" type="standard_car" route="W_E" depart="255.0" departLane="best" departSpeed="10" />
    <vehicle id="W_E_32" type="standard_car" route="W_E" depart="263.0" departLane="best" departSpeed="10" />
    <vehicle id="W_N_33" type="standard_car" route="W_N" depart="269.0" departLane="best" departSpeed="10" />
    <vehicle id="N_S_34" type="standard_car" route="N_S" depart="269.0" departLane="best" departSpeed="10" />
    <vehicle id="S_N_35" type="standard_car" route="S_N" depart="274.0" departLane="best" departSpeed="10" />
    <vehicle id="S_N_36" type="standard_car" route="S_N" depart="275.0" departLane="best" departSpeed="10" />
    <vehicle id="S_W_37" type="standard_car" route="S_W" depart="282.0" departLane="best" departSpeed="10" />
    <vehicle id="S_N_38" type="standard_car" route="S_N" depart="288.0" departLane="best" departSpeed="10" />
    <vehicle id="E_W_39" type="standard_car" route="E_W" depart="294.0" departLane="best" departSpeed="10" />
    <vehicle id="S_N_40" type="standard_car" route="S_N" depart="295.0" departLane="best" departSpeed="10" />
    <vehicle id="W_E_41" type="standard_car" route="W_E" depart="303.0" departLane="best" departSpeed="10" />
    <vehicle id="W_E_42" type="standard_car" route="W_E" depart="306.0" departLane="best" departSpeed="10" />
    <vehicle id="N_E_43" type="standard_car" route="N_E" depart="306.0" departLane="best" departSpeed="10" />
    <vehicle id="W_E_44" type="standard_car" route="W_E" depart="312.0" departLane="best" departSpeed="10" />
    <vehicle id="N_W_45" type="standard_car" route="N_W" depart="313.0" departLane="best" departSpeed="10" />
    <vehicle id="W_E_46" type="standard_car" route="W_E" depart="313.0" departLane="best" departSpeed="10" />
    <vehicle id="E_W_47" type="standard_car" route="E_W" depart="314.0" departLane="best" departSpeed="10" />
    <vehicle id="E_W_48" type="standard_car" route="E_W" depart="323.0" departLane="best" departSpeed="10" />
    <vehicle id="S_N_49" type="standard_car" route="S_N" depart="335.0" departLane="best" departSpeed="10" />
    <vehicle id="S_E_50" type="standard_car" route="S_E" depart="336.0" departLane="best" departSpeed="10" />
    <vehicle id="W_E_51" type="standard_car" route="W_E" depart="337.0" departLane="best" departSpeed="10" />
    <vehicle id="N_S_52" type="standard_car" route="N_S" depart="340.0" departLane="best" departSpeed="10" />
    <vehicle id="N_S_53" type="standard_car" route="N_S" depart="342.0" departLane="best" departSpeed="10" />
    <vehicle id="N_S_54" type="standard_car" route="N_S" depart="345.0" departLane="best" departSpeed="10" />
    <vehicle id="W_N_55" type="standard_car" route="W_N" depart="346.0" departLane="best" departSpeed="10" />
    <vehicle id="N_S_56" type="standard_car" route="N_S" depart="350.0" departLane="best" departSpeed="10" />
    <vehicle id="N_S_57" type="standard_car" route="N_S" depart="350.0" departLane="best" departSpeed="10" />
    <vehicle id="S_E_58" type="standard_car" route="S_E" depart="350.0" departLane="best" departSpeed="10" />
    <vehicle id="N_W_59" type="standard_car" route="N_W" depart="357.0" departLane="best" departSpeed="10" />
    <vehicle id="E_W_60" type="standard_car" route="E_W" depart="358.0" departLane="best" departSpeed="10" />
    <vehicle id="N_S_61" type="standard_car" route="N_S" depart="361.0" departLane="best" departSpeed="10" />
    <vehicle id="N_E_62" type="standard_car" route="N_E" depart="362.0" departLane="best" departSpeed="10" />
    <vehicle id="N_S_63" type="standard_car" route="N_S" depart="365.0" departLane="best" departSpeed="10" />
    <vehicle id="E_N_64" type="standard_car" route="E_N" depart="367.0" departLane="best" departSpeed="10" />
    <vehicle id="N_S_65" type="standard_car" route="N_S" depart="370.0" departLane="best" departSpeed="10" />
    <vehicle id="W_E_66" type="standard_car" route="W_E" depart="371.0" departLane="best" departSpeed="10" />
    <vehicle id="E_W_67" type="standard_car" route="E_W" depart="371.0" departLane="best" departSpeed="10" />
    <vehicle id="N_W_68" type="standard_car" route="N_W" depart="374.0" departLane="best" departSpeed="10" />
    <vehicle id="E_S_69" type="standard_car" route="E_S" depart="378.0" departLane="best" departSpeed="10" />
    <vehicle id="S_E_70" type="standard_car" route="S_E" depart="381.0" departLane="best" departSpeed="10" />
    <vehicle id="S_N_71" type="standard_car" route="S_N" depart="383.0" departLane="best" departSpeed="10" />
    <vehicle id="E_W_72" type="standard_car" route="E_W" depart="384.0" departLane="best" departSpeed="10" />
    <vehicle id="N_S_73" type="standard_car" route="N_S" depart="384.0" departLane="best" departSpeed="10" />
    <vehicle id="E_W_74" type="standard_car" route="E_W" depart="389.0" departLane="best" departSpeed="10" />
    <vehicle id="S_N_75" type="standard_car" route="S_N" depart="398.0" departLane="best" departSpeed="10" />
    <vehicle id="W_E_76" type="standard_car" route="W_E" depart="400.0" departLane="best" departSpeed="10" />
    <vehicle id="W_E_77" type="standard_car" route="W_E" depart="407.0" departLane="best" departSpeed="10" />
    <vehicle id="S_N_78" type="standard_car" route="S_N" depart="408.0" departLane="best" departSpeed="10" />
    <vehicle id="S_N_79" type="standard_car" route="S_N" depart="408.0" departLane="best" departSpeed="10" />
    <vehicle id="N_E_80" type="standard_car" route="N_E" depart="409.0" departLane="best" departSpeed="10" />
    <vehicle id="E_W_81" type="standard_car" route="E_W" depart="414.0" departLane="best" departSpeed="10" />
    <vehicle id="S_N_82" type="standard_car" route="S_N" depart="417.0" departLane="best" departSpeed="10" />
    <vehicle id="E_W_83" type="standard_car" route="E_W" depart="422.0" departLane="best" departSpeed="10" />
    <vehicle id="N_S_84" type="standard_car" route="N_S" depart="423.0" departLane="best" departSpeed="10" />
    <vehicle id="W_E_85" type="standard_car" route="W_E" depart="425.0" departLane="best" departSpeed="10" />
    <vehicle id="S_E_86" type="standard_car" route="S_E" depart="427.0" departLane="best" departSpeed="10" />
    <vehicle id="W_S_87" type="standard_car" route="W_S" depart="432.0" departLane="best" departSpeed="10" />
    <vehicle id="N_E_88" type="standard_car" route="N_E" depart="432.0" departLane="best" departSpeed="10" />
    <vehicle id="E_W_89" type="standard_car" route="E_W" depart="433.0" departLane="best" departSpeed="10" />
    <vehicle id="E_W_90" type="standard_car" route="E_W" depart="438.0" departLane="best" departSpeed="10" />
    <vehicle id="W_E_91" type="standard_car" route="W_E" depart="450.0" departLane="best" departSpeed="10" />
    <vehicle id="W_S_92" type="standard_car" route="W_S" depart="451.0" departLane="best" departSpeed="10" />
    <vehicle id="N_S_93" type="standard_car" route="N_S" depart="452.0" departLane="best" departSpeed="10" />
    <vehicle id="N_S_94" type="standard_car" route="N_S" depart="461.0" departLane="best" departSpeed="10" />
    <vehicle id="N_S_95" type="standard_car" route="N_S" depart="465.0" departLane="best" departSpeed="10" />
    <vehicle id="W_E_96" type="standard_car" route="W_E" depart="467.0" departLane="best" departSpeed="10" />
    <vehicle id="S_N_97" type="standard_car" route="S_N" depart="470.0" departLane="best" departSpeed="10" />
    <vehicle id="W_N_98" type="standard_car" route="W_N" depart="470.0" departLane="best" departSpeed="10" />
    <vehicle id="E_N_99" type="standard_car" route="E_N" depart="472.0" departLane="best" departSpeed="10" />
    <vehicle id="W_E_100" type="standard_car" route="W_E" depart="472.0" departLane="best" departSpeed="10" />
    <vehicle id="N_S_101" type="standard_car" route="N_S" depart="473.0" departLane="best" departSpeed="10" />
    <vehicle id="N_W_102" type="standard_car" route="N_W" depart="474.0" departLane="best" departSpeed="10" />
    <vehicle id="N_E_103" type="standard_car" route="N_E" depart="478.0" departLane="best" departSpeed="10" />
    <vehicle id="E_W_104" type="standard_car" route="E_W" depart="481.0" departLane="best" departSpeed="10" />
    <vehicle id="E_W_105" type="standard_car" route="E_W" depart="483.0" departLane="best" departSpeed="10" />
    <vehicle id="W_E_106" type="standard_car" route="W_E" depart="484.0" departLane="best" departSpeed="10" />
    <vehicle id="S_N_107" type="standard_car" route="S_N" depart="485.0" departLane="best" departSpeed="10" />
    <vehicle id="E_W_108" type="standard_car" route="E_W" depart="486.0" departLane="best" departSpeed="10" />
    <vehicle id="N_S_109" type="standard_car" route="N_S" depart="488.0" departLane="best" departSpeed="10" />
    <vehicle id="E_N_110" type="standard_car" route="E_N" depart="488.0" departLane="best" departSpeed="10" />
    <vehicle id="E_W_111" type="standard_car" route="E_W" depart="489.0" departLane="best" departSpeed="10" />
    <vehicle id="N_S_112" type="standard_car" route="N_S" depart="490.0" departLane="best" departSpeed="10" />
    <vehicle id="W_N_113" type="standard_car" route="W_N" depart="492.0" departLane="best" departSpeed="10" />
    <vehicle id="S_N_114" type="standard_car" route="S_N" depart="494.0" departLane="best" departSpeed="10" />
    <vehicle id="N_S_115" type="standard_car" route="N_S" depart="498.0" departLane="best" departSpeed="10" />
    <vehicle id="E_W_116" type="standard_car" route="E_W" depart="499.0" departLane="best" departSpeed="10" />
    <vehicle id="E_W_117" type="standard_car" route="E_W" depart="501.0" departLane="best" departSpeed="10" />
    <vehicle id="E_W_118" type="standard_car" route="E_W" depart="503.0" departLane="best" departSpeed="10" />
    <vehicle id="E_W_119" type="standard_car" route="E_W" depart="505.0" departLane="best" departSpeed="10" />
    <vehicle id="N_S_120" type="standard_car" route="N_S" depart="508.0" departLane="best" departSpeed="10" />
    <vehicle id="N_S_121" type="standard_car" route="N_S" depart="509.0" departLane="best" departSpeed="10" />
    <vehicle id="W_E_122" type="standard_car" route="W_E" depart="510.0" departLane="best" departSpeed="10" />
    <vehicle id="E_S_123" type="standard_car" route="E_S" depart="511.0" departLane="best" departSpeed="10" />
    <vehicle id="E_W_124" type="standard_car" route="E_W" depart="511.0" departLane="best" departSpeed="10" />
    <vehicle id="S_N_125" type="standard_car" route="S_N" depart="512.0" departLane="best" departSpeed="10" />
    <vehicle id="S_W_126" type="standard_car" route="S_W" depart="512.0" departLane="best" departSpeed="10" />
    <vehicle id="E_S_127" type="standard_car" route="E_S" depart="517.0" departLane="best" departSpeed="10" />
    <vehicle id="W_N_128" type="standard_car" route="W_N" depart="520.0" departLane="best" departSpeed="10" />
    <vehicle id="S_E_129" type="standard_car" route="S_E" depart="522.0" departLane="best" departSpeed="10" />
    <vehicle id="W_E_130" type="standard_car" route="W_E" depart="523.0" departLane="best" departSpeed="10" />
    <vehicle id="W_E_131" type="standard_car" route="W_E" depart="526.0" departLane="best" departSpeed="10" />
    <vehicle id="W_S_132" type="standard_car" route="W_S" depart="526.0" departLane="best" departSpeed="10" />
    <vehicle id="N_S_133" type="standard_car" route="N_S" depart="529.0" departLane="best" departSpeed="10" />
    <vehicle id="N_E_134" type="standard_car" route="N_E" depart="533.0" departLane="best" departSpeed="10" />
    <vehicle id="S_N_135" type="standard_car" route="S_N" depart="534.0" departLane="best" departSpeed="10" />
    <vehicle id="N_S_136" type="standard_car" route="N_S" depart="539.0" departLane="best" departSpeed="10" />
    <vehicle id="E_W_137" type="standard_car" route="E_W" depart="546.0" departLane="best" departSpeed="10" />
    <vehicle id="S_N_138" type="standard_car" route="S_N" depart="552.0" departLane="best" departSpeed="10" />
    <vehicle id="E_S_139" type="standard_car" route="E_S" depart="558.0" departLane="best" departSpeed="10" />
    <vehicle id="W_E_140" type="standard_car" route="W_E" depart="564.0" departLane="best" departSpeed="10" />
    <vehicle id="S_N_141" type="standard_car" route="S_N" depart="565.0" departLane="best" departSpeed="10" />
    <vehicle id="N_E_142" type="standard_car" route="N_E" depart="565.0" departLane="best" departSpeed="10" />
    <vehicle id="E_W_143" type="standard_car" route="E_W" depart="566.0" departLane="best" departSpeed="10" />
    <vehicle id="E_W_144" type="standard_car" route="E_W" depart="568.0" departLane="best" departSpeed="10" />
    <vehicle id="E_S_145" type="standard_car" route="E_S" depart="570.0" departLane="best" departSpeed="10" />
    <vehicle id="W_E_146" type="standard_car" route="W_E" depart="571.0" departLane="best" departSpeed="10" />
    <vehicle id="S_N_147" type="standard_car" route="S_N" depart="574.0" departLane="best" departSpeed="10" />
    <vehicle id="W_E_148" type="standard_car" route="W_E" depart="575.0" departLane="best" departSpeed="10" />
    <vehicle id="E_S_149" type="standard_car" route="E_S" depart="576.0" departLane="best" departSpeed="10" />
    <vehicle id="N_S_150" type="standard_car" route="N_S" depart="579.0" departLane="best" departSpeed="10" />
    <vehicle id="W_E_151" type="standard_car" route="W_E" depart="580.0" departLane="best" departSpeed="10" />
    <vehicle id="S_N_152" type="standard_car" route="S_N" depart="580.0" departLane="best" departSpeed="10" />
    <vehicle id="N_S_153" type="standard_car" route="N_S" depart="582.0" departLane="best" departSpeed="10" />
    <vehicle id="N_S_154" type="standard_car" route="N_S" depart="582.0" departLane="best" departSpeed="10" />
    <vehicle id="N_S_155" type="standard_car" route="N_S" depart="588.0" departLane="best" departSpeed="10" />
    <vehicle id="S_W_156" type="standard_car" route="S_W" depart="595.0" departLane="best" departSpeed="10" />
    <vehicle id="E_S_157" type="standard_car" route="E_S" depart="602.0" departLane="best" departSpeed="10" />
    <vehicle id="N_S_158" type="standard_car" route="N_S" depart="603.0" departLane="best" departSpeed="10" />
    <vehicle id="E_W_159" type="standard_car" route="E_W" depart="607.0" departLane="best" departSpeed="10" />
    <vehicle id="N_S_160" type="standard_car" route="N_S" depart="609.0" departLane="best" departSpeed="10" />
    <vehicle id="N_S_161" type="standard_car" route="N_S" depart="611.0" departLane="best" departSpeed="10" />
    <vehicle id="N_S_162" type="standard_car" route="N_S" depart="612.0" departLane="best" departSpeed="10" />
    <vehicle id="S_W_163" type="standard_car" route="S_W" depart="617.0" departLane="best" departSpeed="10" />
    <vehicle id="N_S_164" type="standard_car" route="N_S" depart="617.0" departLane="best" departSpeed="10" />
    <vehicle id="E_W_165" type="standard_car" route="E_W" depart="619.0" departLane="best" departSpeed="10" />
    <vehicle id="N_S_166" type="standard_car" route="N_S" depart="621.0" departLane="best" departSpeed="10" />
    <vehicle id="W_N_167" type="standard_car" route="W_N" depart="621.0" departLane="best" departSpeed="10" />
    <vehicle id="S_N_168" type="standard_car" route="S_N" depart="624.0" departLane="best" departSpeed="10" />
    <vehicle id="E_N_169" type="standard_car" route="E_N" depart="629.0" departLane="best" departSpeed="10" />
    <vehicle id="E_N_170" type="standard_car" route="E_N" depart="629.0" departLane="best" departSpeed="10" />
    <vehicle id="E_W_171" type="standard_car" route="E_W" depart="633.0" departLane="best" departSpeed="10" />
    <vehicle id="N_E_172" type="standard_car" route="N_E" depart="634.0" departLane="best" departSpeed="10" />
    <vehicle id="S_N_173" type="standard_car" route="S_N" depart="635.0" departLane="best" departSpeed="10" />
    <vehicle id="W_E_174" type="standard_car" route="W_E" depart="636.0" departLane="best" departSpeed="10" />
    <vehicle id="W_E_175" type="standard_car" route="W_E" depart="639.0" departLane="best" departSpeed="10" />
    <vehicle id="N_S_176" type="standard_car" route="N_S" depart="639.0" departLane="best" departSpeed="10" />
    <vehicle id="N_E_177" type="standard_car" route="N_E" depart="640.0" departLane="best" departSpeed="10" />
    <vehicle id="S_N_178" type="standard_car" route="S_N" depart="642.0" departLane="best" departSpeed="10" />
    <vehicle id="E_W_179" type="standard_car" route="E_W" depart="643.0" departLane="best" departSpeed="10" />
    <vehicle id="E_W_180" type="standard_car" route="E_W" depart="645.0" departLane="best" departSpeed="10" />
    <vehicle id="W_E_181" type="standard_car" route="W_E" depart="649.0" departLane="best" departSpeed="10" />
    <vehicle id="W_E_182" type="standard_car" route="W_E" depart="650.0" departLane="best" departSpeed="10" />
    <vehicle id="S_N_183" type="standard_car" route="S_N" depart="651.0" departLane="best" departSpeed="10" />
    <vehicle id="N_S_184" type="standard_car" route="N_S" depart="656.0" departLane="best" departSpeed="10" />
    <vehicle id="N_S_185" type="standard_car" route="N_S" depart="659.0" departLane="best" departSpeed="10" />
    <vehicle id="N_S_186" type="standard_car" route="N_S" depart="662.0" departLane="best" departSpeed="10" />
    <vehicle id="S_N_187" type="standard_car" route="S_N" depart="663.0" departLane="best" departSpeed="10" />
    <vehicle id="W_E_188" type="standard_car" route="W_E" depart="664.0" departLane="best" departSpeed="10" />
    <vehicle id="N_S_189" type="standard_car" route="N_S" depart="665.0" departLane="best" departSpeed="10" />
    <vehicle id="W_E_190" type="standard_car" route="W_E" depart="666.0" departLane="best" departSpeed="10" />
    <vehicle id="W_E_191" type="standard_car" route="W_E" depart="670.0" departLane="best" departSpeed="10" />
    <vehicle id="S_W_192" type="standard_car" route="S_W" depart="672.0" departLane="best" departSpeed="10" />
    <vehicle id="N_W_193" type="standard_car" route="N_W" depart="673.0" departLane="best" departSpeed="10" />
    <vehicle id="S_N_194" type="standard_car" route="S_N" depart="675.0" departLane="best" departSpeed="10" />
    <vehicle id="E_W_195" type="standard_car" route="E_W" depart="675.0" departLane="best" departSpeed="10" />
    <vehicle id="S_N_196" type="standard_car" route="S_N" depart="677.0" departLane="best" departSpeed="10" />
    <vehicle id="N_S_197" type="standard_car" route="N_S" depart="677.0" departLane="best" departSpeed="10" />
    <vehicle id="N_S_198" type="standard_car" route="N_S" depart="680.0" departLane="best" departSpeed="10" />
    <vehicle id="N_E_199" type="standard_car" route="N_E" depart="680.0" departLane="best" departSpeed="10" />
    <vehicle id="E_S_200" type="standard_car" route="E_S" depart="680.0" departLane="best" departSpeed="10" />
    <vehicle id="E_W_201" type="standard_car" route="E_W" depart="683.0" departLane="best" departSpeed="10" />
    <vehicle id="W_E_202" type="standard_car" route="W_E" depart="684.0" departLane="best" departSpeed="10" />
    <vehicle id="S_N_203" type="standard_car" route="S_N" depart="686.0" departLane="best" departSpeed="10" />
    <vehicle id="W_E_204" type="standard_car" route="W_E" depart="687.0" departLane="best" departSpeed="10" />
    <vehicle id="W_S_205" type="standard_car" route="W_S" depart="689.0" departLane="best" departSpeed="10" />
    <vehicle id="S_N_206" type="standard_car" route="S_N" depart="691.0" departLane="best" departSpeed="10" />
    <vehicle id="W_N_207" type="standard_car" route="W_N" depart="692.0" departLane="best" departSpeed="10" />
    <vehicle id="W_E_208" type="standard_car" route="W_E" depart="699.0" departLane="best" departSpeed="10" />
    <vehicle id="W_E_209" type="standard_car" route="W_E" depart="700.0" departLane="best" departSpeed="10" />
    <vehicle id="S_N_210" type="standard_car" route="S_N" depart="701.0" departLane="best" departSpeed="10" />
    <vehicle id="W_N_211" type="standard_car" route="W_N" depart="702.0" departLane="best" departSpeed="10" />
    <vehicle id="S_N_212" type="standard_car" route="S_N" depart="703.0" departLane="best" departSpeed="10" />
    <vehicle id="W_E_213" type="standard_car" route="W_E" depart="705.0" departLane="best" departSpeed="10" />
    <vehicle id="E_W_214" type="standard_car" route="E_W" depart="707.0" departLane="best" departSpeed="10" />
    <vehicle id="W_E_215" type="standard_car" route="W_E" depart="707.0" departLane="best" departSpeed="10" />
    <vehicle id="N_E_216" type="standard_car" route="N_E" depart="708.0" departLane="best" departSpeed="10" />
    <vehicle id="E_W_217" type="standard_car" route="E_W" depart="710.0" departLane="best" departSpeed="10" />
    <vehicle id="W_S_218" type="standard_car" route="W_S" depart="711.0" departLane="best" departSpeed="10" />
    <vehicle id="N_W_219" type="standard_car" route="N_W" depart="711.0" departLane="best" departSpeed="10" />
    <vehicle id="S_N_220" type="standard_car" route="S_N" depart="712.0" departLane="best" departSpeed="10" />
    <vehicle id="E_W_221" type="standard_car" route="E_W" depart="715.0" departLane="best" departSpeed="10" />
    <vehicle id="N_S_222" type="standard_car" route="N_S" depart="715.0" departLane="best" departSpeed="10" />
    <vehicle id="W_E_223" type="standard_car" route="W_E" depart="716.0" departLane="best" departSpeed="10" />
    <vehicle id="W_E_224" type="standard_car" route="W_E" depart="716.0" departLane="best" departSpeed="10" />
    <vehicle id="S_N_225" type="standard_car" route="S_N" depart="716.0" departLane="best" departSpeed="10" />
    <vehicle id="E_W_226" type="standard_car" route="E_W" depart="717.0" departLane="best" departSpeed="10" />
    <vehicle id="E_W_227" type="standard_car" route="E_W" depart="719.0" departLane="best" departSpeed="10" />
    <vehicle id="W_E_228" type="standard_car" route="W_E" depart="719.0" departLane="best" departSpeed="10" />
    <vehicle id="S_N_229" type="standard_car" route="S_N" depart="721.0" departLane="best" departSpeed="10" />
    <vehicle id="N_S_230" type="standard_car" route="N_S" depart="722.0" departLane="best" departSpeed="10" />
    <vehicle id="E_N_231" type="standard_car" route="E_N" depart="724.0" departLane="best" departSpeed="10" />
    <vehicle id="S_E_232" type="standard_car" route="S_E" depart="724.0" departLane="best" departSpeed="10" />
    <vehicle id="S_N_233" type="standard_car" route="S_N" depart="725.0" departLane="best" departSpeed="10" />
    <vehicle id="E_N_234" type="standard_car" route="E_N" depart="730.0" departLane="best" departSpeed="10" />
    <vehicle id="W_N_235" type="standard_car" route="W_N" depart="730.0" departLane="best" departSpeed="10" />
    <vehicle id="E_W_236" type="standard_car" route="E_W" depart="732.0" departLane="best" departSpeed="10" />
    <vehicle id="S_N_237" type="standard_car" route="S_N" depart="733.0" departLane="best" departSpeed="10" />
    <vehicle id="E_W_238" type="standard_car" route="E_W" depart="734.0" departLane="best" departSpeed="10" />
    <vehicle id="W_E_239" type="standard_car" route="W_E" depart="736.0" departLane="best" departSpeed="10" />
    <vehicle id="N_S_240" type="standard_car" route="N_S" depart="738.0" departLane="best" departSpeed="10" />
    <vehicle id="E_W_241" type="standard_car" route="E_W" depart="738.0" departLane="best" departSpeed="10" />
    <vehicle id="W_E_242" type="standard_car" route="W_E" depart="739.0" departLane="best" departSpeed="10" />
    <vehicle id="E_W_243" type="standard_car" route="E_W" depart="739.0" departLane="best" departSpeed="10" />
    <vehicle id="W_E_244" type="standard_car" route="W_E" depart="741.0" departLane="best" departSpeed="10" />
    <vehicle id="W_E_245" type="standard_car" route="W_E" depart="741.0" departLane="best" departSpeed="10" />
    <vehicle id="E_W_246" type="standard_car" route="E_W" depart="743.0" departLane="best" departSpeed="10" />
    <vehicle id="E_W_247" type="standard_car" route="E_W" depart="744.0" departLane="best" departSpeed="10" />
    <vehicle id="S_N_248" type="standard_car" route="S_N" depart="748.0" departLane="best" departSpeed="10" />
    <vehicle id="N_E_249" type="standard_car" route="N_E" depart="749.0" departLane="best" departSpeed="10" />
    <vehicle id="N_S_250" type="standard_car" route="N_S" depart="751.0" departLane="best" departSpeed="10" />
    <vehicle id="N_S_251" type="standard_car" route="N_S" depart="751.0" departLane="best" departSpeed="10" />
    <vehicle id="W_S_252" type="standard_car" route="W_S" depart="752.0" departLane="best" departSpeed="10" />
    <vehicle id="W_S_253" type="standard_car" route="W_S" depart="752.0" departLane="best" departSpeed="10" />
    <vehicle id="W_S_254" type="standard_car" route="W_S" depart="758.0" departLane="best" departSpeed="10" />
    <vehicle id="E_W_255" type="standard_car" route="E_W" depart="761.0" departLane="best" departSpeed="10" />
    <vehicle id="S_N_256" type="standard_car" route="S_N" depart="762.0" departLane="best" departSpeed="10" />
    <vehicle id="N_S_257" type="standard_car" route="N_S" depart="763.0" departLane="best" departSpeed="10" />
    <vehicle id="W_S_258" type="standard_car" route="W_S" depart="765.0" departLane="best" departSpeed="10" />
    <vehicle id="N_W_259" type="standard_car" route="N_W" depart="766.0" departLane="best" departSpeed="10" />
    <vehicle id="N_S_260" type="standard_car" route="N_S" depart="768.0" departLane="best" departSpeed="10" />